data_image0
_chemical_formula_structural       Pt10
_chemical_formula_sum              "Pt10"
_cell_length_a       20
_cell_length_b       20
_cell_length_c       20
_cell_angle_alpha    90
_cell_angle_beta     90
_cell_angle_gamma    90

_space_group_name_H-M_alt    "P 1"
_space_group_IT_number       1

loop_
  _space_group_symop_operation_xyz
  'x, y, z'

loop_
  _atom_site_type_symbol
  _atom_site_label
  _atom_site_symmetry_multiplicity
  _atom_site_fract_x
  _atom_site_fract_y
  _atom_site_fract_z
  _atom_site_occupancy
  Pt  Pt1       1.0  0.63372  0.44299  0.29739  1.0000
  Pt  Pt2       1.0  0.58648  0.41319  0.55833  1.0000
  Pt  Pt3       1.0  0.63758  0.43002  0.45702  1.0000
  Pt  Pt4       1.0  0.57271  0.54867  0.28353  1.0000
  Pt  Pt5       1.0  0.56319  0.71164  0.17605  1.0000
  Pt  Pt6       1.0  0.52529  0.60120  0.18550  1.0000
  Pt  Pt7       1.0  0.60091  0.45877  0.19391  1.0000
  Pt  Pt8       1.0  0.44374  0.56779  0.28553  1.0000
  Pt  Pt9       1.0  0.51231  0.65642  0.29554  1.0000
  Pt  Pt10      1.0  0.48298  0.37207  0.58142  1.0000
